Circuit: * C:\Users\Hrishikesh M Rao\Documents\LTSPICE\Draft2.asc

Limiting rise time of source i1 to 0.1
Limiting fall time of source i1 to 0.1
Limiting rise time of source v8 to 0.1
Limiting fall time of source v8 to 0.1
Limiting rise time of source v5 to 0.1
Limiting fall time of source v5 to 0.1
Limiting rise time of source v1 to 0.1
Limiting fall time of source v1 to 0.1
WARNING: Node NC_02 is floating.

WARNING: Less than two connections to node NC_01.  This node is used by D2.
WARNING: Less than two connections to node NC_02.  This node is used by R2.
Direct Newton iteration for .op point succeeded.

Date: Wed Sep 07 07:27:49 2022
Total elapsed time: 0.235 seconds.

tnom = 27
temp = 27
method = modified trap
totiter = 12286
traniter = 12257
tranpoints = 3858
accept = 3025
rejected = 833
matrix size = 43
fillins = 3
solver = Normal
Matrix Compiler1: 2.25 KB object code size  0.5/0.5/[0.2]
Matrix Compiler2: 3.14 KB object code size  0.4/0.5/[0.3]

